<?xml version="1.0" encoding="utf-8"?>
<!DOCTYPE TS>
<TS version="2.1" language="en_US">
<context>
    <name>main</name>
    <message>
        <location filename="main.qml" line="10"/>
        <source>%1</source>
        <translation type="unfinished"></translation>
    </message>
    <message>
        <location filename="main.qml" line="22"/>
        <source>Welcome to FluentUI</source>
        <translation type="unfinished"></translation>
    </message>
    <message>
        <location filename="main.qml" line="27"/>
        <source>Learn FluentUI</source>
        <translation type="unfinished"></translation>
    </message>
</context>
</TS>
