<?xml version="1.0" encoding="utf-8"?>
<!DOCTYPE TS>
<TS version="2.1" language="zh_CN">
<context>
    <name>main</name>
    <message>
        <location filename="main.qml" line="10"/>
        <source>%1</source>
        <translation type="unfinished">%1</translation>
    </message>
    <message>
        <location filename="main.qml" line="22"/>
        <source>Welcome to FluentUI</source>
        <translation type="unfinished">欢迎使用FluentUI</translation>
    </message>
    <message>
        <location filename="main.qml" line="27"/>
        <source>Learn FluentUI</source>
        <translation type="unfinished">学习FluentUI</translation>
    </message>
    <message>
        <location filename="main.qml" line="42"/>
        <source>Author&apos;s WeChat ID: </source>
        <translation type="unfinished">作者微信号: </translation>
    </message>
</context>
</TS>
